<?xml version="1.0" encoding="UTF-8"?>

<!-- generated on 07/07/22 04:21:17 by Eclipse SUMO netedit Version 1.6.0
<configuration xmlns:xsi="http://www.w3.org/2001/XMLSchema-instance" xsi:noNamespaceSchemaLocation="http://sumo.dlr.de/xsd/netconvertConfiguration.xsd">

    <input>
        <sumo-net-file value="C:\Users\REDES\Desktop\Mestrado\Dissertacao\SUMO\codigos\Workshop\fernandes-lima-20-manha\Resultados%20Full\simulacao-22\fernandes-lima-v118.v13.sim1.net.xml"/>
    </input>

    <output>
        <output-file value="C:\Users\REDES\Desktop\Mestrado\Dissertacao\SUMO\codigos\Workshop\fernandes-lima-20-manha\Resultados%20Full\simulacao-22\fernandes-lima-v118.v13.sim1.sem-faixa-azul.sem-semaforo-manual.sim1.net.xml"/>
    </output>

    <processing>
        <geometry.min-radius.fix.railways value="false"/>
        <geometry.max-grade.fix value="false"/>
        <offset.disable-normalization value="true"/>
        <lefthand value="false"/>
    </processing>

    <junctions>
        <no-internal-links value="false"/>
        <no-turnarounds value="true"/>
        <junctions.corner-detail value="5"/>
        <junctions.limit-turn-speed value="5.5"/>
        <rectangular-lane-cut value="false"/>
    </junctions>

    <pedestrian>
        <walkingareas value="false"/>
    </pedestrian>

    <report>
        <aggregate-warnings value="5"/>
    </report>

</configuration>
-->

<net version="1.6" junctionCornerDetail="5" limitTurnSpeed="5.50" xmlns:xsi="http://www.w3.org/2001/XMLSchema-instance" xsi:noNamespaceSchemaLocation="http://sumo.dlr.de/xsd/net_file.xsd">

    <location netOffset="-197949.61,1068214.62" convBoundary="1244.19,337.36,2255.80,4870.90" origBoundary="-35.751705,-9.652667,-35.718914,-9.595584" projParameter="+proj=utm +zone=25 +ellps=WGS84 +datum=WGS84 +units=m +no_defs"/>

    <type id="highway.bridleway" priority="1" numLanes="1" speed="2.78" allow="pedestrian" oneway="1" width="2.00"/>
    <type id="highway.bus_guideway" priority="1" numLanes="1" speed="27.78" allow="bus" oneway="1"/>
    <type id="highway.cycleway" priority="1" numLanes="1" speed="8.33" allow="bicycle" oneway="0" width="1.00"/>
    <type id="highway.footway" priority="1" numLanes="1" speed="2.78" allow="pedestrian" oneway="1" width="2.00"/>
    <type id="highway.ford" priority="1" numLanes="1" speed="2.78" allow="army" oneway="0"/>
    <type id="highway.living_street" priority="2" numLanes="1" speed="2.78" disallow="tram rail_urban rail rail_electric rail_fast ship" oneway="0"/>
    <type id="highway.motorway" priority="14" numLanes="2" speed="39.44" allow="private emergency authority army vip passenger hov taxi bus coach delivery truck trailer motorcycle evehicle custom1 custom2" oneway="1"/>
    <type id="highway.motorway_link" priority="9" numLanes="1" speed="22.22" allow="private emergency authority army vip passenger hov taxi bus coach delivery truck trailer motorcycle evehicle custom1 custom2" oneway="1"/>
    <type id="highway.path" priority="1" numLanes="1" speed="2.78" allow="pedestrian bicycle" oneway="1" width="2.00"/>
    <type id="highway.pedestrian" priority="1" numLanes="1" speed="2.78" allow="pedestrian" oneway="1" width="2.00"/>
    <type id="highway.primary" priority="12" numLanes="2" speed="27.78" disallow="tram rail_urban rail rail_electric rail_fast ship" oneway="0"/>
    <type id="highway.primary_link" priority="7" numLanes="1" speed="22.22" disallow="tram rail_urban rail rail_electric rail_fast ship" oneway="0"/>
    <type id="highway.raceway" priority="15" numLanes="2" speed="83.33" allow="vip" oneway="0"/>
    <type id="highway.residential" priority="3" numLanes="1" speed="13.89" disallow="tram rail_urban rail rail_electric rail_fast ship" oneway="0"/>
    <type id="highway.secondary" priority="11" numLanes="1" speed="27.78" disallow="tram rail_urban rail rail_electric rail_fast ship" oneway="0"/>
    <type id="highway.secondary_link" priority="6" numLanes="1" speed="22.22" disallow="tram rail_urban rail rail_electric rail_fast ship" oneway="0"/>
    <type id="highway.service" priority="1" numLanes="1" speed="5.56" allow="pedestrian delivery bicycle" oneway="0"/>
    <type id="highway.stairs" priority="1" numLanes="1" speed="1.39" allow="pedestrian" oneway="1" width="2.00"/>
    <type id="highway.step" priority="1" numLanes="1" speed="1.39" allow="pedestrian" oneway="1" width="2.00"/>
    <type id="highway.steps" priority="1" numLanes="1" speed="1.39" allow="pedestrian" oneway="1" width="2.00"/>
    <type id="highway.tertiary" priority="10" numLanes="1" speed="22.22" disallow="tram rail_urban rail rail_electric rail_fast ship" oneway="0"/>
    <type id="highway.tertiary_link" priority="5" numLanes="1" speed="22.22" disallow="tram rail_urban rail rail_electric rail_fast ship" oneway="0"/>
    <type id="highway.track" priority="1" numLanes="1" speed="5.56" disallow="tram rail_urban rail rail_electric rail_fast ship" oneway="0"/>
    <type id="highway.trunk" priority="13" numLanes="2" speed="27.78" disallow="pedestrian bicycle tram rail_urban rail rail_electric rail_fast ship" oneway="0"/>
    <type id="highway.trunk_link" priority="8" numLanes="1" speed="22.22" disallow="pedestrian bicycle tram rail_urban rail rail_electric rail_fast ship" oneway="0"/>
    <type id="highway.unclassified" priority="4" numLanes="1" speed="13.89" disallow="tram rail_urban rail rail_electric rail_fast ship" oneway="0"/>
    <type id="highway.unsurfaced" priority="1" numLanes="1" speed="8.33" disallow="tram rail_urban rail rail_electric rail_fast ship" oneway="0"/>
    <type id="railway.highspeed" priority="21" numLanes="1" speed="69.44" allow="rail_fast" oneway="1"/>
    <type id="railway.light_rail" priority="19" numLanes="1" speed="27.78" allow="rail_urban" oneway="1"/>
    <type id="railway.preserved" priority="16" numLanes="1" speed="27.78" allow="rail" oneway="1"/>
    <type id="railway.rail" priority="20" numLanes="1" speed="44.44" allow="rail" oneway="1"/>
    <type id="railway.subway" priority="18" numLanes="1" speed="27.78" allow="rail_urban" oneway="1"/>
    <type id="railway.tram" priority="17" numLanes="1" speed="13.89" allow="tram" oneway="1"/>

    <edge id=":1748183668_0" function="internal">
        <lane id=":1748183668_0_0" index="0" disallow="pedestrian bicycle tram rail_urban rail rail_electric rail_fast ship" speed="6.61" length="8.65" shape="1467.44,3072.51 1467.55,3070.23 1466.90,3068.39 1465.48,3066.97 1463.30,3065.97"/>
    </edge>
    <edge id=":1748183668_1" function="internal">
        <lane id=":1748183668_1_0" index="0" allow="passenger taxi bus truck motorcycle" speed="16.67" length="10.41" shape="1467.44,3072.51 1469.55,3062.28"/>
        <lane id=":1748183668_1_1" index="1" disallow="pedestrian bicycle tram rail_urban rail rail_electric rail_fast ship" speed="16.67" length="10.41" shape="1470.58,3073.14 1472.68,3062.94"/>
        <lane id=":1748183668_1_2" index="2" disallow="pedestrian bicycle tram rail_urban rail rail_electric rail_fast ship" speed="16.67" length="10.41" shape="1473.72,3073.76 1475.81,3063.61"/>
    </edge>
    <edge id=":2673997639_0" function="internal">
        <lane id=":2673997639_0_0" index="0" allow="private emergency authority army vip passenger hov taxi coach delivery truck trailer motorcycle moped evehicle custom1 custom2" speed="12.83" length="17.16" shape="1296.93,4678.62 1294.25,4681.21 1292.19,4684.59 1290.77,4688.78 1289.97,4693.77"/>
    </edge>
    <edge id=":2673997639_1" function="internal">
        <lane id=":2673997639_1_0" index="0" allow="private emergency authority army vip passenger hov taxi coach delivery truck trailer motorcycle moped evehicle custom1 custom2" speed="16.66" length="21.64" shape="1296.93,4678.62 1292.19,4682.86 1288.89,4686.47 1285.22,4689.03 1279.41,4690.11"/>
    </edge>
    <edge id=":2673997639_2" function="internal">
        <lane id=":2673997639_2_0" index="0" allow="private emergency authority army vip passenger hov taxi coach delivery truck trailer motorcycle moped evehicle custom1 custom2" speed="13.78" length="9.97" shape="1295.05,4676.04 1291.84,4679.09 1289.40,4683.01 1289.09,4683.88"/>
    </edge>
    <edge id=":2673997639_3" function="internal">
        <lane id=":2673997639_3_0" index="0" allow="private emergency authority army vip passenger hov taxi coach delivery truck trailer motorcycle moped evehicle custom1 custom2" speed="16.66" length="21.54" shape="1295.05,4676.04 1290.28,4680.26 1286.92,4683.78 1283.20,4686.15 1277.36,4686.91"/>
    </edge>
    <edge id=":2673997639_7" function="internal">
        <lane id=":2673997639_7_0" index="0" allow="private emergency authority army vip passenger hov taxi coach delivery truck trailer motorcycle moped evehicle custom1 custom2" speed="13.78" length="9.91" shape="1289.09,4683.88 1287.71,4687.81 1286.78,4693.48"/>
    </edge>
    <edge id=":2673997639_4" function="internal">
        <lane id=":2673997639_4_0" index="0" allow="passenger taxi bus truck motorcycle" speed="16.67" length="20.89" shape="1292.23,4673.12 1289.97,4693.77"/>
        <lane id=":2673997639_4_1" index="1" disallow="pedestrian bicycle tram rail_urban rail rail_electric rail_fast ship" speed="16.67" length="20.89" shape="1289.06,4672.71 1286.78,4693.48"/>
        <lane id=":2673997639_4_2" index="2" disallow="pedestrian bicycle tram rail_urban rail rail_electric rail_fast ship" speed="16.67" length="20.89" shape="1285.88,4672.31 1283.59,4693.20"/>
    </edge>
    <edge id=":2673997642_0" function="internal">
        <lane id=":2673997642_0_0" index="0" allow="private emergency authority army vip pedestrian passenger hov taxi delivery trailer motorcycle moped bicycle evehicle custom1 custom2" speed="11.11" length="11.68" shape="1304.14,4669.98 1303.15,4681.53"/>
        <lane id=":2673997642_0_1" index="1" allow="private emergency authority army vip pedestrian passenger hov taxi delivery trailer motorcycle moped bicycle evehicle custom1 custom2" speed="11.11" length="11.68" shape="1300.96,4669.57 1299.95,4681.30"/>
    </edge>
    <edge id=":2673997642_2" function="internal">
        <lane id=":2673997642_2_0" index="0" allow="private emergency authority army vip passenger hov taxi delivery trailer motorcycle moped evehicle custom1 custom2" speed="10.21" length="9.98" shape="1300.96,4669.57 1300.39,4672.66 1299.56,4675.18 1298.46,4677.13 1297.09,4678.50"/>
    </edge>
    <edge id=":2673997642_3" function="internal">
        <lane id=":2673997642_3_0" index="0" allow="private emergency authority army vip passenger hov taxi delivery trailer motorcycle moped evehicle custom1 custom2" speed="9.58" length="8.73" shape="1300.96,4669.57 1300.49,4670.86 1299.37,4672.35 1297.61,4674.03 1295.21,4675.92"/>
    </edge>
    <edge id=":2673997653_0" function="internal">
        <lane id=":2673997653_0_0" index="0" allow="private emergency authority army vip pedestrian passenger hov taxi delivery trailer motorcycle moped bicycle evehicle custom1 custom2" speed="11.11" length="12.66" shape="1317.49,4567.62 1315.81,4580.17"/>
        <lane id=":2673997653_0_1" index="1" allow="private emergency authority army vip pedestrian passenger hov taxi delivery trailer motorcycle moped bicycle evehicle custom1 custom2" speed="11.11" length="12.66" shape="1314.32,4567.20 1312.63,4579.76"/>
    </edge>
    <edge id=":2673997653_2" function="internal">
        <lane id=":2673997653_2_0" index="0" allow="private emergency authority army vip passenger hov taxi delivery trailer motorcycle moped evehicle custom1 custom2" speed="12.42" length="11.31" shape="1311.09,4569.19 1313.33,4572.17 1314.98,4574.32 1315.86,4576.65 1315.81,4580.17"/>
        <lane id=":2673997653_2_1" index="1" allow="private emergency authority army vip passenger hov taxi delivery trailer motorcycle moped evehicle custom1 custom2" speed="11.26" length="11.31" shape="1308.43,4570.97 1310.31,4573.37 1311.78,4575.07 1312.62,4576.91 1312.63,4579.76"/>
    </edge>
    <edge id=":2673997654_0" function="internal">
        <lane id=":2673997654_0_0" index="0" allow="private emergency authority army vip passenger hov taxi coach delivery truck trailer motorcycle moped evehicle custom1 custom2" speed="11.40" length="10.24" shape="1306.71,4560.19 1306.74,4563.05 1307.60,4564.90 1309.07,4566.61 1310.97,4569.02"/>
    </edge>
    <edge id=":2673997654_1" function="internal">
        <lane id=":2673997654_1_0" index="0" allow="private emergency authority army vip passenger hov taxi coach delivery truck trailer motorcycle moped evehicle custom1 custom2" speed="11.88" length="11.15" shape="1306.71,4560.19 1306.26,4563.47 1306.15,4565.82 1306.71,4568.01 1308.31,4570.80"/>
    </edge>
    <edge id=":2673997654_2" function="internal">
        <lane id=":2673997654_2_0" index="0" allow="passenger taxi bus truck motorcycle" speed="16.67" length="12.70" shape="1306.71,4560.19 1305.09,4572.81"/>
        <lane id=":2673997654_2_1" index="1" disallow="pedestrian bicycle tram rail_urban rail rail_electric rail_fast ship" speed="16.67" length="12.70" shape="1303.53,4559.80 1301.92,4572.40"/>
        <lane id=":2673997654_2_2" index="2" disallow="pedestrian bicycle tram rail_urban rail rail_electric rail_fast ship" speed="16.67" length="12.70" shape="1300.35,4559.42 1298.75,4571.99"/>
    </edge>
    <edge id=":314771290_0" function="internal">
        <lane id=":314771290_0_0" index="0" disallow="pedestrian bicycle tram rail_urban rail rail_electric rail_fast ship" speed="6.60" length="8.86" shape="1886.39,1173.17 1886.28,1175.52 1886.97,1177.39 1888.46,1178.80 1890.74,1179.73"/>
    </edge>
    <edge id=":314771290_1" function="internal">
        <lane id=":314771290_1_0" index="0" disallow="pedestrian bicycle tram rail_urban rail rail_electric rail_fast ship" speed="7.40" length="11.43" shape="1886.39,1173.17 1886.00,1176.89 1886.46,1179.74 1887.78,1181.72 1889.94,1182.83"/>
    </edge>
    <edge id=":314771290_2" function="internal">
        <lane id=":314771290_2_0" index="0" allow="passenger taxi bus truck motorcycle" speed="16.67" length="13.76" shape="1886.39,1173.17 1883.49,1186.73"/>
        <lane id=":314771290_2_1" index="1" disallow="pedestrian bicycle tram rail_urban rail rail_electric rail_fast ship" speed="16.67" length="13.76" shape="1883.25,1172.56 1880.37,1186.01"/>
        <lane id=":314771290_2_2" index="2" disallow="pedestrian bicycle tram rail_urban rail rail_electric rail_fast ship" speed="16.67" length="13.76" shape="1880.11,1171.95 1877.26,1185.29"/>
    </edge>
    <edge id=":4100933261_0" function="internal">
        <lane id=":4100933261_0_0" index="0" allow="passenger taxi bus truck motorcycle" speed="16.67" length="0.30" shape="1933.12,936.83 1933.06,937.13"/>
        <lane id=":4100933261_0_1" index="1" disallow="pedestrian bicycle tram rail_urban rail rail_electric rail_fast ship" speed="16.67" length="0.30" shape="1929.98,936.21 1929.92,936.51"/>
        <lane id=":4100933261_0_2" index="2" disallow="pedestrian bicycle tram rail_urban rail rail_electric rail_fast ship" speed="16.67" length="0.30" shape="1926.84,935.60 1926.78,935.88"/>
    </edge>
    <edge id=":430579613_0" function="internal">
        <lane id=":430579613_0_0" index="0" disallow="pedestrian bicycle tram rail_urban rail rail_electric rail_fast ship" speed="6.48" length="9.03" shape="1449.08,3136.79 1451.55,3136.95 1453.47,3136.28 1454.84,3134.77 1455.66,3132.43"/>
    </edge>
    <edge id=":430579613_1" function="internal">
        <lane id=":430579613_1_0" index="0" allow="passenger taxi bus truck motorcycle" speed="16.67" length="10.91" shape="1453.84,3143.38 1455.66,3132.43"/>
        <lane id=":430579613_1_1" index="1" disallow="pedestrian bicycle tram rail_urban rail rail_electric rail_fast ship" speed="16.67" length="10.91" shape="1457.01,3143.81 1458.80,3133.05"/>
        <lane id=":430579613_1_2" index="2" disallow="pedestrian bicycle tram rail_urban rail rail_electric rail_fast ship" speed="16.67" length="10.91" shape="1460.18,3144.24 1461.94,3133.66"/>
    </edge>
    <edge id=":430579624_0" function="internal">
        <lane id=":430579624_0_0" index="0" disallow="pedestrian bicycle tram rail_urban rail rail_electric rail_fast ship" speed="6.11" length="8.99" shape="1827.08,1287.47 1829.51,1288.13 1831.43,1287.78 1832.84,1286.41 1833.75,1284.02"/>
    </edge>
    <edge id=":430579624_1" function="internal">
        <lane id=":430579624_1_0" index="0" allow="passenger taxi bus truck motorcycle" speed="16.67" length="11.02" shape="1831.43,1294.95 1833.75,1284.02"/>
        <lane id=":430579624_1_1" index="1" disallow="pedestrian bicycle tram rail_urban rail rail_electric rail_fast ship" speed="16.67" length="11.02" shape="1834.57,1295.56 1836.86,1284.78"/>
        <lane id=":430579624_1_2" index="2" disallow="pedestrian bicycle tram rail_urban rail rail_electric rail_fast ship" speed="16.67" length="11.02" shape="1837.71,1296.17 1839.97,1285.54"/>
    </edge>
    <edge id=":430579631_0" function="internal">
        <lane id=":430579631_0_0" index="0" disallow="pedestrian bicycle tram rail_urban rail rail_electric rail_fast ship" speed="5.70" length="9.21" shape="1996.00,473.72 1998.38,475.09 2000.24,475.14 2001.57,473.84 2002.38,471.22"/>
    </edge>
    <edge id=":430579631_1" function="internal">
        <lane id=":430579631_1_0" index="0" disallow="pedestrian bicycle tram rail_urban rail rail_electric rail_fast ship" speed="8.96" length="12.06" shape="1999.57,486.28 1999.64,483.81 1998.74,481.32 1996.88,478.80 1994.05,476.25"/>
    </edge>
    <edge id=":430579631_2" function="internal">
        <lane id=":430579631_2_0" index="0" disallow="pedestrian bicycle tram rail_urban rail rail_electric rail_fast ship" speed="16.67" length="15.51" shape="1999.57,486.28 2002.38,471.22"/>
        <lane id=":430579631_2_1" index="1" disallow="pedestrian bicycle tram rail_urban rail rail_electric rail_fast ship" speed="16.67" length="15.51" shape="2002.69,486.99 2005.54,471.74"/>
        <lane id=":430579631_2_2" index="2" disallow="pedestrian bicycle tram rail_urban rail rail_electric rail_fast ship" speed="16.67" length="15.51" shape="2005.81,487.69 2008.70,472.27"/>
    </edge>
    <edge id=":430579633_0" function="internal">
        <lane id=":430579633_0_0" index="0" disallow="pedestrian bicycle tram rail_urban rail rail_electric rail_fast ship" speed="16.67" length="20.63" shape="2002.62,469.81 2003.10,463.84 2002.33,459.72 2000.71,455.68 1998.67,449.93"/>
    </edge>
    <edge id=":430579633_1" function="internal">
        <lane id=":430579633_1_0" index="0" disallow="pedestrian bicycle tram rail_urban rail rail_electric rail_fast ship" speed="16.67" length="21.13" shape="2002.62,469.81 2003.60,463.58 2003.88,459.16 2003.31,454.86 2001.74,449.01"/>
    </edge>
    <edge id=":430579633_2" function="internal">
        <lane id=":430579633_2_0" index="0" allow="passenger taxi bus truck motorcycle" speed="16.67" length="21.34" shape="2002.62,469.81 2006.75,448.77"/>
        <lane id=":430579633_2_1" index="1" disallow="pedestrian bicycle tram rail_urban rail rail_electric rail_fast ship" speed="16.67" length="21.34" shape="2005.77,470.34 2009.88,449.40"/>
        <lane id=":430579633_2_2" index="2" disallow="pedestrian bicycle tram rail_urban rail rail_electric rail_fast ship" speed="16.67" length="21.34" shape="2008.93,470.86 2013.02,450.02"/>
    </edge>
    <edge id=":430958545_0" function="internal">
        <lane id=":430958545_0_0" index="0" disallow="pedestrian bicycle tram rail_urban rail rail_electric rail_fast ship" speed="6.10" length="9.06" shape="1882.54,1017.83 1885.02,1018.48 1886.95,1018.10 1888.33,1016.70 1889.16,1014.27"/>
    </edge>
    <edge id=":430958545_1" function="internal">
        <lane id=":430958545_1_0" index="0" disallow="pedestrian bicycle tram rail_urban rail rail_electric rail_fast ship" speed="6.95" length="12.15" shape="1881.30,1020.78 1884.10,1021.34 1886.34,1020.44 1888.03,1018.09 1889.16,1014.27"/>
    </edge>
    <edge id=":430958545_2" function="internal">
        <lane id=":430958545_2_0" index="0" allow="passenger taxi bus truck motorcycle" speed="16.67" length="14.52" shape="1886.51,1028.56 1889.16,1014.27"/>
        <lane id=":430958545_2_1" index="1" disallow="pedestrian bicycle tram rail_urban rail rail_electric rail_fast ship" speed="16.67" length="14.52" shape="1889.65,1029.14 1892.31,1014.86"/>
        <lane id=":430958545_2_2" index="2" disallow="pedestrian bicycle tram rail_urban rail rail_electric rail_fast ship" speed="16.67" length="14.52" shape="1892.80,1029.71 1895.45,1015.46"/>
    </edge>
    <edge id=":430958546_0" function="internal">
        <lane id=":430958546_0_0" index="0" disallow="pedestrian bicycle tram rail_urban rail rail_electric rail_fast ship" speed="7.00" length="8.83" shape="1908.24,913.92 1908.27,911.85 1907.53,910.04 1906.01,908.49 1903.71,907.20"/>
    </edge>
    <edge id=":430958546_1" function="internal">
        <lane id=":430958546_1_0" index="0" disallow="pedestrian bicycle tram rail_urban rail rail_electric rail_fast ship" speed="7.77" length="11.06" shape="1908.24,913.92 1908.58,910.46 1908.15,907.69 1906.95,905.63 1904.99,904.26"/>
    </edge>
    <edge id=":430958546_2" function="internal">
        <lane id=":430958546_2_0" index="0" allow="passenger taxi bus truck motorcycle" speed="16.67" length="12.86" shape="1908.24,913.92 1910.78,901.26"/>
        <lane id=":430958546_2_1" index="1" disallow="pedestrian bicycle tram rail_urban rail rail_electric rail_fast ship" speed="16.67" length="12.86" shape="1911.38,914.52 1913.91,901.91"/>
        <lane id=":430958546_2_2" index="2" disallow="pedestrian bicycle tram rail_urban rail rail_electric rail_fast ship" speed="16.67" length="12.86" shape="1914.53,915.11 1917.04,902.56"/>
    </edge>
    <edge id=":430958547_0" function="internal">
        <lane id=":430958547_0_0" index="0" disallow="pedestrian bicycle tram rail_urban rail rail_electric rail_fast ship" speed="6.19" length="9.05" shape="2045.90,411.38 2043.40,410.89 2041.48,411.36 2040.11,412.81 2039.31,415.22"/>
    </edge>
    <edge id=":430958547_1" function="internal">
        <lane id=":430958547_1_0" index="0" allow="passenger taxi bus truck motorcycle" speed="16.67" length="11.42" shape="2041.50,404.13 2039.31,415.22"/>
        <lane id=":430958547_1_1" index="1" disallow="pedestrian bicycle tram rail_urban rail rail_electric rail_fast ship" speed="16.67" length="11.42" shape="2038.37,403.44 2036.16,414.65"/>
        <lane id=":430958547_1_2" index="2" disallow="pedestrian bicycle tram rail_urban rail rail_electric rail_fast ship" speed="16.67" length="11.42" shape="2035.25,402.76 2033.01,414.08"/>
    </edge>
    <edge id=":430958548_0" function="internal">
        <lane id=":430958548_0_0" index="0" disallow="pedestrian bicycle tram rail_urban rail rail_electric rail_fast ship" speed="6.53" length="8.92" shape="2022.70,506.80 2022.60,509.23 2023.29,511.12 2024.79,512.49 2027.09,513.33"/>
    </edge>
    <edge id=":430958548_1" function="internal">
        <lane id=":430958548_1_0" index="0" allow="passenger taxi bus truck motorcycle" speed="16.67" length="10.95" shape="2022.70,506.80 2020.60,517.59"/>
        <lane id=":430958548_1_1" index="1" disallow="pedestrian bicycle tram rail_urban rail rail_electric rail_fast ship" speed="16.67" length="10.95" shape="2019.56,506.21 2017.46,516.96"/>
        <lane id=":430958548_1_2" index="2" disallow="pedestrian bicycle tram rail_urban rail rail_electric rail_fast ship" speed="16.67" length="10.95" shape="2016.41,505.62 2014.32,516.33"/>
    </edge>
    <edge id=":430983954_0" function="internal">
        <lane id=":430983954_0_0" index="0" disallow="pedestrian bicycle tram rail_urban rail rail_electric rail_fast ship" speed="7.11" length="6.18" shape="1716.74,1841.84 1718.23,1840.98 1719.35,1839.93 1720.11,1838.70 1720.51,1837.28"/>
    </edge>
    <edge id=":430983954_1" function="internal">
        <lane id=":430983954_1_0" index="0" allow="passenger taxi bus truck motorcycle" speed="16.67" length="7.95" shape="1720.49,1844.85 1720.76,1842.63 1720.60,1841.08 1720.40,1839.52 1720.51,1837.28"/>
        <lane id=":430983954_1_1" index="1" allow="passenger taxi bus truck motorcycle" speed="16.67" length="7.95" shape="1720.49,1844.85 1721.26,1842.67 1722.19,1841.31 1723.07,1839.93 1723.68,1837.73"/>
        <lane id=":430983954_1_2" index="2" disallow="pedestrian bicycle tram rail_urban rail rail_electric rail_fast ship" speed="16.67" length="7.95" shape="1723.62,1845.53 1723.90,1843.24 1723.75,1841.65 1723.56,1840.04 1723.68,1837.73"/>
        <lane id=":430983954_1_3" index="3" disallow="pedestrian bicycle tram rail_urban rail rail_electric rail_fast ship" speed="16.67" length="7.95" shape="1723.62,1845.53 1724.40,1843.28 1725.34,1841.87 1726.22,1840.45 1726.85,1838.18"/>
        <lane id=":430983954_1_4" index="4" disallow="pedestrian bicycle tram rail_urban rail rail_electric rail_fast ship" speed="16.67" length="7.95" shape="1726.75,1846.20 1727.55,1843.89 1728.49,1842.44 1729.38,1840.97 1730.02,1838.63"/>
    </edge>
    <edge id=":431025192_0" function="internal">
        <lane id=":431025192_0_0" index="0" disallow="pedestrian bicycle tram rail_urban rail rail_electric rail_fast ship" speed="7.07" length="8.79" shape="1383.32,3930.36 1383.48,3932.38 1384.38,3934.11 1386.01,3935.54 1388.39,3936.69"/>
    </edge>
    <edge id=":431025192_1" function="internal">
        <lane id=":431025192_1_0" index="0" disallow="pedestrian bicycle tram rail_urban rail rail_electric rail_fast ship" speed="7.83" length="10.96" shape="1383.32,3930.36 1383.29,3933.80 1383.94,3936.50 1385.28,3938.47 1387.30,3939.70"/>
    </edge>
    <edge id=":431025192_2" function="internal">
        <lane id=":431025192_2_0" index="0" allow="passenger taxi bus truck motorcycle" speed="16.67" length="12.64" shape="1383.32,3930.36 1381.85,3943.02"/>
        <lane id=":431025192_2_1" index="1" disallow="pedestrian bicycle tram rail_urban rail rail_electric rail_fast ship" speed="16.67" length="12.64" shape="1380.14,3930.05 1378.68,3942.61"/>
        <lane id=":431025192_2_2" index="2" disallow="pedestrian bicycle tram rail_urban rail rail_electric rail_fast ship" speed="16.67" length="12.64" shape="1376.95,3929.73 1375.50,3942.20"/>
    </edge>
    <edge id=":431025337_0" function="internal">
        <lane id=":431025337_0_0" index="0" disallow="pedestrian bicycle tram rail_urban rail rail_electric rail_fast ship" speed="6.03" length="9.11" shape="1424.83,3315.72 1427.33,3316.34 1429.23,3315.91 1430.53,3314.43 1431.22,3311.91"/>
    </edge>
    <edge id=":431025337_1" function="internal">
        <lane id=":431025337_1_0" index="0" disallow="pedestrian bicycle tram rail_urban rail rail_electric rail_fast ship" speed="7.65" length="10.30" shape="1429.37,3326.36 1429.25,3323.98 1428.27,3321.91 1426.42,3320.16 1423.70,3318.71"/>
    </edge>
    <edge id=":431025337_2" function="internal">
        <lane id=":431025337_2_0" index="0" disallow="pedestrian bicycle tram rail_urban rail rail_electric rail_fast ship" speed="16.67" length="14.56" shape="1429.37,3326.36 1431.22,3311.91"/>
        <lane id=":431025337_2_1" index="1" disallow="pedestrian bicycle tram rail_urban rail rail_electric rail_fast ship" speed="16.67" length="14.56" shape="1432.54,3326.76 1434.40,3312.32"/>
        <lane id=":431025337_2_2" index="2" disallow="pedestrian bicycle tram rail_urban rail rail_electric rail_fast ship" speed="16.67" length="14.56" shape="1435.72,3327.16 1437.57,3312.74"/>
    </edge>
    <edge id=":431025339_0" function="internal">
        <lane id=":431025339_0_0" index="0" disallow="pedestrian bicycle tram rail_urban rail rail_electric rail_fast ship" speed="5.69" length="9.22" shape="1458.16,3356.38 1455.72,3355.09 1453.87,3355.11 1452.60,3356.46 1451.92,3359.14"/>
    </edge>
    <edge id=":431025339_1" function="internal">
        <lane id=":431025339_1_0" index="0" disallow="pedestrian bicycle tram rail_urban rail rail_electric rail_fast ship" speed="9.27" length="12.21" shape="1453.82,3343.92 1453.95,3346.38 1455.03,3348.85 1457.05,3351.31 1460.03,3353.78"/>
    </edge>
    <edge id=":431025339_2" function="internal">
        <lane id=":431025339_2_0" index="0" disallow="pedestrian bicycle tram rail_urban rail rail_electric rail_fast ship" speed="16.67" length="15.40" shape="1453.82,3343.92 1451.92,3359.14"/>
        <lane id=":431025339_2_1" index="1" disallow="pedestrian bicycle tram rail_urban rail rail_electric rail_fast ship" speed="16.67" length="15.40" shape="1450.65,3343.48 1448.74,3358.76"/>
        <lane id=":431025339_2_2" index="2" disallow="pedestrian bicycle tram rail_urban rail rail_electric rail_fast ship" speed="16.67" length="15.40" shape="1447.48,3343.04 1445.56,3358.38"/>
    </edge>
    <edge id=":4858063390_0" function="internal">
        <lane id=":4858063390_0_0" index="0" disallow="pedestrian bicycle tram rail_urban rail rail_electric rail_fast ship" speed="6.09" length="9.06" shape="1396.47,3855.43 1393.94,3855.00 1392.05,3855.54 1390.80,3857.06 1390.19,3859.55"/>
    </edge>
    <edge id=":4858063390_1" function="internal">
        <lane id=":4858063390_1_0" index="0" disallow="pedestrian bicycle tram rail_urban rail rail_electric rail_fast ship" speed="7.35" length="10.15" shape="1391.79,3845.06 1391.89,3847.50 1392.87,3849.53 1394.72,3851.16 1397.45,3852.38"/>
    </edge>
    <edge id=":4858063390_2" function="internal">
        <lane id=":4858063390_2_0" index="0" disallow="pedestrian bicycle tram rail_urban rail rail_electric rail_fast ship" speed="16.67" length="14.68" shape="1391.79,3845.06 1390.19,3859.55"/>