<?xml version="1.0" encoding="UTF-8"?>
<routes xmlns:xsi="http://www.w3.org/2001/XMLSchema-instance" xsi:noNamespaceSchemaLocation="http://sumo.dlr.de/xsd/routes_file.xsd">	
		
	<!-- TIPOS DE VEICULOS -->
	<vType id="passenger2" vClass="passenger" accel="2.6" decel="4.5" sigma="0.5" length="5" maxSpeed="60" minGap="1.25" carFollowModel="Krauss" speedFactor="1.2"/>
	
	<!-- ROTA DO FLUXO DOS CARROS -->		
	<!-- 	
	<vehicle id="broken1" type="passenger" color="148,0,211" depart="0" from="gneE14" to="775830384" via="853222188#2 190347088#2">
		<stop lane="286346394#1_1" startPos="256.67" endPos="266.67" duration="900"/>
	</vehicle>
	-->

	<vehicle id="broken2" type="passenger2" color="148,0,211" depart="1800">
		<route edges="gneE14 gneE14.25 853222188#2 853222188#3 190347088#0 190347088#1 190347088#1.28 190347088#1.153 190347088#2 286346394#0 286346394#0.33 286346394#1 286346394#1.261 286346394#1.316 286346394#1.316.43 286346394#1.641 286346394#4 286346394#4.31 286346394#5 286346394#5.16 286346394#5.47 286346394#6 286346394#6.62 286346394#7 286346394#7.20 286346394#7.38 286346394#8 286346398#0 286346398#0.32 286346398#0.110 286346398#1 745500848#0 745500848#0.19 745500848#0.40 745500848#1 745500848#2 745500848#2.28 745500848#3 745500848#3.22 745500848#3.45 745500848#4 745500848#4.24 745500848#4.54 745500848#5 745500848#5.23 745500848#5.52 745500848#6 745500848#6.28 745500848#6.90 745500848#7 745500848#8 745500848#8.21 745500848#8.79 745500848#9 745500848#10 745500848#11 745500848#11.26 745500848#11.72 745500848#12 745500848#12.31 745500848#12.31.262 745500848#16 745500848#16.28 745500848#16.28.95 745500848#19 745500848#20 745500848#20.31 745500848#20.88 745500848#21 745500848#23 745500848#25 745500848#25.23 745500848#27 745500848#27.19 745500848#28 745500848#28.30 745500848#28.90 745500848#30 745500848#30.21 745500848#30.34 745500848#31 775830384"/>
		<stop lane="745500848#7_1" startPos="15.00" endPos="40.00" duration="900"/>
	</vehicle>
</routes>